
#======================================================================
# CRYSTAL DATA
#----------------------------------------------------------------------
data_VESTA_phase_1

_chemical_name_common                  ''
_cell_length_a                         9.195000
_cell_length_b                         9.195000
_cell_length_c                         9.195000
_cell_angle_alpha                      90.000000
_cell_angle_beta                       90.000000
_cell_angle_gamma                      90.000000
_cell_volume                           777.419012
_space_group_name_H-M_alt              'P 1'
_space_group_IT_number                 1

loop_
_space_group_symop_operation_xyz
   'x, y, z'

loop_
   _atom_site_label
   _atom_site_occupancy
   _atom_site_fract_x
   _atom_site_fract_y
   _atom_site_fract_z
   _atom_site_adp_type
   _atom_site_B_iso_or_equiv
   _atom_site_type_symbol
   C1         1.0     0.250000     0.250000     0.250000    Biso  1.000000 C
   C1         1.0     0.750000     0.750000     0.750000    Biso  1.000000 C
   C1         1.0     0.750000     0.750000     0.250000    Biso  1.000000 C
   C1         1.0     0.250000     0.250000     0.750000    Biso  1.000000 C
   C1         1.0     0.750000     0.250000     0.750000    Biso  1.000000 C
   C1         1.0     0.250000     0.750000     0.250000    Biso  1.000000 C
   C1         1.0     0.250000     0.750000     0.750000    Biso  1.000000 C
   C1         1.0     0.750000     0.250000     0.250000    Biso  1.000000 C
   C2         1.0     0.152000     0.152000     0.152000    Biso  1.000000 C
   C2         1.0     0.848000     0.848000     0.848000    Biso  1.000000 C
   C2         1.0     0.848000     0.848000     0.152000    Biso  1.000000 C
   C2         1.0     0.152000     0.152000     0.848000    Biso  1.000000 C
   C2         1.0     0.848000     0.152000     0.848000    Biso  1.000000 C
   C2         1.0     0.152000     0.848000     0.152000    Biso  1.000000 C
   C2         1.0     0.152000     0.848000     0.848000    Biso  1.000000 C
   C2         1.0     0.848000     0.152000     0.152000    Biso  1.000000 C
   C2         1.0     0.152000     0.652000     0.652000    Biso  1.000000 C
   C2         1.0     0.848000     0.348000     0.348000    Biso  1.000000 C
   C2         1.0     0.848000     0.348000     0.652000    Biso  1.000000 C
   C2         1.0     0.152000     0.652000     0.348000    Biso  1.000000 C
   C2         1.0     0.848000     0.652000     0.348000    Biso  1.000000 C
   C2         1.0     0.152000     0.348000     0.652000    Biso  1.000000 C
   C2         1.0     0.152000     0.348000     0.348000    Biso  1.000000 C
   C2         1.0     0.848000     0.652000     0.652000    Biso  1.000000 C
   C2         1.0     0.652000     0.152000     0.652000    Biso  1.000000 C
   C2         1.0     0.348000     0.848000     0.348000    Biso  1.000000 C
   C2         1.0     0.348000     0.848000     0.652000    Biso  1.000000 C
   C2         1.0     0.652000     0.152000     0.348000    Biso  1.000000 C
   C2         1.0     0.348000     0.152000     0.348000    Biso  1.000000 C
   C2         1.0     0.652000     0.848000     0.652000    Biso  1.000000 C
   C2         1.0     0.652000     0.848000     0.348000    Biso  1.000000 C
   C2         1.0     0.348000     0.152000     0.652000    Biso  1.000000 C
   C2         1.0     0.652000     0.652000     0.152000    Biso  1.000000 C
   C2         1.0     0.348000     0.348000     0.848000    Biso  1.000000 C
   C2         1.0     0.348000     0.348000     0.152000    Biso  1.000000 C
   C2         1.0     0.652000     0.652000     0.848000    Biso  1.000000 C
   C2         1.0     0.348000     0.652000     0.848000    Biso  1.000000 C
   C2         1.0     0.652000     0.348000     0.152000    Biso  1.000000 C
   C2         1.0     0.652000     0.348000     0.848000    Biso  1.000000 C
   C2         1.0     0.348000     0.652000     0.152000    Biso  1.000000 C
   C3         1.0     0.198000     0.198000     0.000000    Biso  1.000000 C
   C3         1.0     0.802000     0.802000     0.000000    Biso  1.000000 C
   C3         1.0     0.802000     0.198000     0.000000    Biso  1.000000 C
   C3         1.0     0.198000     0.802000     0.000000    Biso  1.000000 C
   C3         1.0     0.000000     0.198000     0.198000    Biso  1.000000 C
   C3         1.0     0.000000     0.802000     0.802000    Biso  1.000000 C
   C3         1.0     0.000000     0.802000     0.198000    Biso  1.000000 C
   C3         1.0     0.000000     0.198000     0.802000    Biso  1.000000 C
   C3         1.0     0.198000     0.000000     0.198000    Biso  1.000000 C
   C3         1.0     0.802000     0.000000     0.802000    Biso  1.000000 C
   C3         1.0     0.198000     0.000000     0.802000    Biso  1.000000 C
   C3         1.0     0.802000     0.000000     0.198000    Biso  1.000000 C
   C3         1.0     0.198000     0.698000     0.500000    Biso  1.000000 C
   C3         1.0     0.802000     0.302000     0.500000    Biso  1.000000 C
   C3         1.0     0.802000     0.698000     0.500000    Biso  1.000000 C
   C3         1.0     0.198000     0.302000     0.500000    Biso  1.000000 C
   C3         1.0     0.000000     0.698000     0.698000    Biso  1.000000 C
   C3         1.0     0.000000     0.302000     0.302000    Biso  1.000000 C
   C3         1.0     0.000000     0.302000     0.698000    Biso  1.000000 C
   C3         1.0     0.000000     0.698000     0.302000    Biso  1.000000 C
   C3         1.0     0.198000     0.500000     0.698000    Biso  1.000000 C
   C3         1.0     0.802000     0.500000     0.302000    Biso  1.000000 C
   C3         1.0     0.198000     0.500000     0.302000    Biso  1.000000 C
   C3         1.0     0.802000     0.500000     0.698000    Biso  1.000000 C
   C3         1.0     0.698000     0.198000     0.500000    Biso  1.000000 C
   C3         1.0     0.302000     0.802000     0.500000    Biso  1.000000 C
   C3         1.0     0.302000     0.198000     0.500000    Biso  1.000000 C
   C3         1.0     0.698000     0.802000     0.500000    Biso  1.000000 C
   C3         1.0     0.500000     0.198000     0.698000    Biso  1.000000 C
   C3         1.0     0.500000     0.802000     0.302000    Biso  1.000000 C
   C3         1.0     0.500000     0.802000     0.698000    Biso  1.000000 C
   C3         1.0     0.500000     0.198000     0.302000    Biso  1.000000 C
   C3         1.0     0.698000     0.000000     0.698000    Biso  1.000000 C
   C3         1.0     0.302000     0.000000     0.302000    Biso  1.000000 C
   C3         1.0     0.698000     0.000000     0.302000    Biso  1.000000 C
   C3         1.0     0.302000     0.000000     0.698000    Biso  1.000000 C
   C3         1.0     0.698000     0.698000     0.000000    Biso  1.000000 C
   C3         1.0     0.302000     0.302000     0.000000    Biso  1.000000 C
   C3         1.0     0.302000     0.698000     0.000000    Biso  1.000000 C
   C3         1.0     0.698000     0.302000     0.000000    Biso  1.000000 C
   C3         1.0     0.500000     0.698000     0.198000    Biso  1.000000 C
   C3         1.0     0.500000     0.302000     0.802000    Biso  1.000000 C
   C3         1.0     0.500000     0.302000     0.198000    Biso  1.000000 C
   C3         1.0     0.500000     0.698000     0.802000    Biso  1.000000 C
   C3         1.0     0.698000     0.500000     0.198000    Biso  1.000000 C
   C3         1.0     0.302000     0.500000     0.802000    Biso  1.000000 C
   C3         1.0     0.698000     0.500000     0.802000    Biso  1.000000 C
   C3         1.0     0.302000     0.500000     0.198000    Biso  1.000000 C
